Version 4
SHEET 1 1052 680
WIRE 768 -176 736 -176
WIRE 864 -176 832 -176
WIRE -288 -128 -368 -128
WIRE 224 -128 -288 -128
WIRE 576 -128 224 -128
WIRE 784 -128 576 -128
WIRE 176 -80 176 -96
WIRE 192 -80 176 -80
WIRE 320 -80 272 -80
WIRE -288 -48 -288 -128
WIRE 176 -48 176 -80
WIRE 320 -48 320 -80
WIRE 320 -48 176 -48
WIRE 736 -48 736 -176
WIRE 752 -48 736 -48
WIRE 864 -48 864 -176
WIRE 864 -48 832 -48
WIRE 144 -32 -144 -32
WIRE 576 -32 576 -128
WIRE 224 0 224 -128
WIRE 736 0 736 -48
WIRE 736 0 704 0
WIRE 176 16 176 -48
WIRE 192 16 176 16
WIRE 784 16 784 -128
WIRE 320 32 320 -48
WIRE 320 32 256 32
WIRE 736 32 736 0
WIRE 752 32 736 32
WIRE -16 48 -64 48
WIRE 16 48 -16 48
WIRE 144 48 144 -32
WIRE 144 48 80 48
WIRE 192 48 144 48
WIRE 576 48 464 48
WIRE 720 48 576 48
WIRE 864 48 864 -48
WIRE 864 48 816 48
WIRE 960 48 928 48
WIRE 720 64 720 48
WIRE 752 64 720 64
WIRE 576 80 576 48
WIRE 960 80 960 48
WIRE -288 96 -288 32
WIRE -144 96 -144 -32
WIRE -144 96 -288 96
WIRE 224 112 224 64
WIRE 784 128 784 80
WIRE -368 144 -368 -128
WIRE 704 144 704 0
WIRE -288 160 -288 96
WIRE -64 160 -64 48
WIRE 320 192 320 112
WIRE 368 192 320 192
WIRE 464 192 464 48
WIRE 464 192 432 192
WIRE 960 192 960 160
WIRE 320 208 320 192
WIRE 576 256 576 160
WIRE -368 272 -368 224
WIRE -288 272 -288 240
WIRE -288 272 -368 272
WIRE -368 288 -368 272
WIRE -64 304 -64 240
WIRE 704 304 704 288
WIRE 224 320 224 288
FLAG -368 288 0
FLAG -64 304 0
FLAG 224 112 0
FLAG 784 128 0
FLAG -16 128 0
FLAG 320 288 0
FLAG 704 304 0
FLAG 576 256 0
FLAG 464 272 0
FLAG 960 192 0
SYMBOL voltage -64 144 R0
WINDOW 123 24 124 Left 2
WINDOW 39 0 0 Left 2
SYMATTR Value2 AC ac 1.
SYMATTR InstName V1
SYMATTR Value SINE(0 1.5 100 1)
SYMBOL voltage -368 128 R0
WINDOW 123 0 0 Left 2
WINDOW 39 0 0 Left 2
SYMATTR InstName V2
SYMATTR Value 9
SYMBOL Opamps\\UniversalOpamp2 224 32 R0
SYMATTR InstName U1
SYMBOL Opamps\\UniversalOpamp2 784 48 R0
SYMATTR InstName U2
SYMBOL cap 80 32 R90
WINDOW 0 0 32 VBottom 2
WINDOW 3 32 32 VTop 2
SYMATTR InstName C1
SYMATTR Value 10µ
SYMBOL res -304 -64 R0
SYMATTR InstName R1
SYMATTR Value 1meg
SYMBOL res -304 144 R0
SYMATTR InstName R3
SYMATTR Value 1meg
SYMBOL res -32 32 R0
SYMATTR InstName R4
SYMATTR Value 1meg
SYMBOL cap 432 176 R90
WINDOW 0 0 32 VBottom 2
WINDOW 3 32 32 VTop 2
SYMATTR InstName C3
SYMATTR Value 2.2µ
SYMBOL res 288 -96 R90
WINDOW 0 0 56 VBottom 2
WINDOW 3 32 56 VTop 2
SYMATTR InstName R2
SYMATTR Value 10k
SYMBOL res 304 16 R0
SYMATTR InstName R6
SYMATTR Value 22k
SYMBOL res 304 192 R0
SYMATTR InstName R7
SYMATTR Value 10k
SYMBOL res 592 64 R180
WINDOW 0 36 76 Left 2
WINDOW 3 36 40 Left 2
SYMATTR InstName R8
SYMATTR Value 1meg
SYMBOL res 848 -64 R90
WINDOW 0 0 56 VBottom 2
WINDOW 3 32 56 VTop 2
SYMATTR InstName R9
SYMATTR Value 47k
SYMBOL res 720 240 R180
WINDOW 0 36 76 Left 2
WINDOW 3 36 40 Left 2
SYMATTR InstName R10
SYMATTR Value 22k
SYMBOL cap 688 224 R0
SYMATTR InstName C2
SYMATTR Value 10µ
SYMBOL res 560 64 R0
SYMATTR InstName R5
SYMATTR Value 1meg
SYMBOL res 448 176 R0
SYMATTR InstName R11
SYMATTR Value 10meg
SYMBOL res 944 64 R0
SYMATTR InstName R12
SYMATTR Value 1meg
SYMBOL cap 928 32 R90
WINDOW 0 0 32 VBottom 2
WINDOW 3 32 32 VTop 2
SYMATTR InstName C4
SYMATTR Value 1µ
SYMBOL cap 832 -192 R90
WINDOW 0 0 32 VBottom 2
WINDOW 3 32 32 VTop 2
SYMATTR InstName C5
SYMATTR Value 100p
TEXT -400 312 Left 2 !.tran 5
TEXT -400 352 Left 2 !;ac oct 12 1 100k
