Version 4
SHEET 1 880 788
WIRE 448 -64 400 -64
WIRE 576 -64 528 -64
WIRE 400 48 400 -64
WIRE 432 48 400 48
WIRE 448 48 432 48
WIRE 576 64 576 -64
WIRE 576 64 512 64
WIRE 640 64 576 64
WIRE 288 80 208 80
WIRE 448 80 368 80
WIRE -32 96 -32 16
WIRE 208 160 208 80
WIRE 432 160 432 48
WIRE -32 208 -32 176
WIRE -32 208 -160 208
WIRE -160 224 -160 208
WIRE -32 224 -32 208
WIRE 432 256 432 240
WIRE 432 256 368 256
WIRE 432 272 432 256
WIRE 208 288 208 240
WIRE 368 288 368 256
WIRE 400 288 368 288
WIRE -32 384 -32 304
WIRE 432 384 432 352
WIRE 368 416 368 288
WIRE 368 496 368 480
WIRE 480 496 368 496
WIRE 368 512 368 496
WIRE 640 512 640 496
WIRE 480 528 480 496
WIRE 608 528 480 528
WIRE 736 544 672 544
WIRE 608 560 592 560
WIRE 640 592 640 576
WIRE 368 608 368 592
WIRE 480 608 368 608
WIRE 592 608 592 560
WIRE 592 608 544 608
WIRE 368 624 368 608
WIRE 592 640 592 608
WIRE 736 640 736 544
WIRE 736 640 592 640
WIRE 368 768 368 704
FLAG -160 224 0
FLAG 208 288 0
FLAG -32 16 V+
FLAG 480 32 V+
FLAG 640 592 V+
FLAG -32 384 V1
FLAG 640 496 V1
FLAG 480 96 V1
FLAG 640 64 vout
FLAG 368 768 0
FLAG 432 384 0
SYMBOL voltage -32 80 R0
WINDOW 123 0 0 Left 2
WINDOW 39 0 0 Left 2
SYMATTR InstName V1
SYMATTR Value 15
SYMBOL voltage -32 208 R0
WINDOW 123 0 0 Left 2
WINDOW 39 0 0 Left 2
SYMATTR InstName V2
SYMATTR Value 15
SYMBOL voltage 208 144 R0
WINDOW 3 24 152 Left 2
WINDOW 123 24 124 Left 2
WINDOW 39 0 0 Left 2
SYMATTR InstName V3
SYMATTR Value SINE(0 1 100 1)
SYMATTR Value2 AC AC 1.
SYMBOL Opamps\\UniversalOpamp2 480 64 R0
SYMATTR InstName U1
SYMBOL Opamps\\UniversalOpamp2 640 544 M180
SYMATTR InstName U2
SYMBOL res 544 -80 R90
WINDOW 0 0 56 VBottom 2
WINDOW 3 32 56 VTop 2
SYMATTR InstName R1
SYMATTR Value 10k
SYMBOL res 384 64 R90
WINDOW 0 0 56 VBottom 2
WINDOW 3 32 56 VTop 2
SYMATTR InstName R2
SYMATTR Value 10k
SYMBOL cap 544 592 R90
WINDOW 0 0 32 VBottom 2
WINDOW 3 32 32 VTop 2
SYMATTR InstName C1
SYMATTR Value 2µ
SYMBOL res 352 496 R0
SYMATTR InstName R4
SYMATTR Value 1k
SYMBOL res 352 608 R0
SYMATTR InstName R5
SYMATTR Value 1k
SYMBOL cap 352 416 R0
SYMATTR InstName C2
SYMATTR Value 1µ
SYMBOL res 416 144 R0
SYMATTR InstName R6
SYMATTR Value {rv + 1}
SYMBOL res 416 256 R0
SYMATTR InstName R7
SYMATTR Value {10K001 - rv}
TEXT -180 680 Left 2 !;tran 0 5 0 startup
TEXT -176 648 Left 2 !.ac oct 12 2 50k
TEXT -184 616 Left 2 !.step param rv 1 10K 1k
