Version 4
SHEET 1 1236 868
WIRE 640 -64 400 -64
WIRE 768 -64 720 -64
WIRE -368 -32 -416 -32
WIRE -368 16 -368 -32
WIRE -176 16 -320 16
WIRE -448 32 -448 16
WIRE -416 32 -416 -32
WIRE -416 32 -448 32
WIRE 400 48 400 -64
WIRE 432 48 400 48
WIRE 592 48 432 48
WIRE 640 48 592 48
WIRE 768 64 768 -64
WIRE 768 64 704 64
WIRE 848 64 768 64
WIRE 960 64 912 64
WIRE 1072 64 960 64
WIRE 96 80 -16 80
WIRE 144 80 96 80
WIRE 288 80 208 80
WIRE 384 80 368 80
WIRE 560 80 384 80
WIRE 640 80 560 80
WIRE -448 96 -448 32
WIRE -320 112 -320 16
WIRE -288 112 -320 112
WIRE -368 128 -368 96
WIRE -336 128 -368 128
WIRE -176 128 -176 16
WIRE -176 128 -224 128
WIRE -16 128 -16 80
WIRE -368 144 -368 128
WIRE -336 144 -336 128
WIRE -288 144 -336 144
WIRE 432 160 432 48
WIRE 592 160 592 48
WIRE -448 208 -448 176
WIRE -448 208 -576 208
WIRE -576 224 -576 208
WIRE 432 256 432 240
WIRE 432 256 368 256
WIRE 592 256 592 240
WIRE 864 256 592 256
WIRE 432 272 432 256
WIRE 592 272 592 256
WIRE -448 288 -448 208
WIRE -368 288 -368 224
WIRE -368 288 -448 288
WIRE -16 336 -16 208
WIRE 864 336 864 320
WIRE 976 336 864 336
WIRE 864 352 864 336
WIRE 1136 352 1136 336
WIRE 976 368 976 336
WIRE 1104 368 976 368
WIRE 384 384 384 80
WIRE 432 384 432 352
WIRE 432 384 384 384
WIRE 560 384 560 80
WIRE 592 384 592 352
WIRE 592 384 560 384
WIRE 1232 384 1168 384
WIRE 1104 400 1088 400
WIRE 368 416 368 256
WIRE 1136 432 1136 416
WIRE 864 448 864 432
WIRE 976 448 864 448
WIRE 1088 448 1088 400
WIRE 1088 448 1040 448
WIRE 864 464 864 448
WIRE 1088 480 1088 448
WIRE 1232 480 1232 384
WIRE 1232 480 1088 480
WIRE 368 496 368 480
WIRE 480 496 368 496
WIRE 368 512 368 496
WIRE 640 512 640 496
WIRE 480 528 480 496
WIRE 608 528 480 528
WIRE 736 544 672 544
WIRE 608 560 592 560
WIRE 640 592 640 576
WIRE 368 608 368 592
WIRE 480 608 368 608
WIRE 592 608 592 560
WIRE 592 608 544 608
WIRE 864 608 864 544
WIRE 368 624 368 608
WIRE 592 640 592 608
WIRE 736 640 736 544
WIRE 736 640 592 640
WIRE 368 768 368 704
FLAG -576 224 0
FLAG -16 336 0
FLAG -448 16 V+
FLAG 672 32 V+
FLAG 640 592 V+
FLAG 1072 64 vout
FLAG 672 96 0
FLAG 640 496 0
FLAG -256 96 V+
FLAG -256 160 0
FLAG -176 128 vref
FLAG 368 768 vref
FLAG 96 160 0
FLAG 960 144 0
FLAG 1136 432 V+
FLAG 1136 336 0
FLAG 864 608 vref
SYMBOL voltage -448 80 R0
WINDOW 123 0 0 Left 2
WINDOW 39 0 0 Left 2
SYMATTR InstName V1
SYMATTR Value 9
SYMBOL voltage -16 112 R0
WINDOW 3 24 152 Left 2
WINDOW 123 24 124 Left 2
WINDOW 39 0 0 Left 2
SYMATTR Value SINE(0 1 100 1)
SYMATTR Value2 AC AC 1.
SYMATTR InstName V3
SYMBOL Opamps\\UniversalOpamp2 672 64 R0
SYMATTR InstName U1
SYMBOL Opamps\\UniversalOpamp2 640 544 M180
SYMATTR InstName U2
SYMBOL res 736 -80 R90
WINDOW 0 0 56 VBottom 2
WINDOW 3 32 56 VTop 2
SYMATTR InstName R1
SYMATTR Value 10k
SYMBOL res 384 64 R90
WINDOW 0 0 56 VBottom 2
WINDOW 3 32 56 VTop 2
SYMATTR InstName R2
SYMATTR Value 10k
SYMBOL cap 544 592 R90
WINDOW 0 0 32 VBottom 2
WINDOW 3 32 32 VTop 2
SYMATTR InstName C1
SYMATTR Value 2µ
SYMBOL res 352 496 R0
SYMATTR InstName R4
SYMATTR Value 2.2k
SYMBOL res 352 608 R0
SYMATTR InstName R5
SYMATTR Value 2.2k
SYMBOL cap 352 416 R0
SYMATTR InstName C2
SYMATTR Value .22µ
SYMBOL res 416 144 R0
SYMATTR InstName R6
SYMATTR Value {rv + 1}
SYMBOL res 416 256 R0
SYMATTR InstName R7
SYMATTR Value {10K001 - rv}
SYMBOL Opamps\\UniversalOpamp2 -256 128 R0
SYMATTR InstName U3
SYMBOL res -384 0 R0
SYMATTR InstName R8
SYMATTR Value 10k
SYMBOL res -384 128 R0
SYMATTR InstName R9
SYMATTR Value 10k
SYMBOL cap 208 64 R90
WINDOW 0 0 32 VBottom 2
WINDOW 3 32 32 VTop 2
SYMATTR InstName C3
SYMATTR Value 10µ
SYMBOL res 80 64 R0
SYMATTR InstName R10
SYMATTR Value 1meg
SYMBOL cap 912 48 R90
WINDOW 0 0 32 VBottom 2
WINDOW 3 32 32 VTop 2
SYMATTR InstName C4
SYMATTR Value 10µ
SYMBOL res 944 48 R0
SYMATTR InstName R11
SYMATTR Value 1meg
SYMBOL res 576 144 R0
SYMATTR InstName R12
SYMATTR Value {10k001 - rv}
SYMBOL res 576 256 R0
SYMATTR InstName R13
SYMATTR Value {rv + 1}
SYMBOL Opamps\\UniversalOpamp2 1136 384 M180
SYMATTR InstName U4
SYMBOL cap 1040 432 R90
WINDOW 0 0 32 VBottom 2
WINDOW 3 32 32 VTop 2
SYMATTR InstName C5
SYMATTR Value .047µ
SYMBOL res 848 336 R0
SYMATTR InstName R14
SYMATTR Value 2.2k
SYMBOL res 848 448 R0
SYMATTR InstName R15
SYMATTR Value 2.2k
SYMBOL cap 848 256 R0
SYMATTR InstName C6
SYMATTR Value .047µ
TEXT -648 -80 Left 2 !;tran 0 5 0 startup
TEXT -640 -112 Left 2 !.ac oct 12 2 50k
TEXT -648 -144 Left 2 !.step param rv 1 10K 1k
