Version 4
SHEET 1 1248 1192
WIRE 304 -96 -16 -96
WIRE 448 -96 304 -96
WIRE 528 -96 448 -96
WIRE 448 -64 448 -96
WIRE 304 -16 304 -96
WIRE 448 32 448 16
WIRE 176 112 128 112
WIRE 304 112 304 64
WIRE 304 112 240 112
WIRE 400 112 304 112
WIRE -16 128 -16 -96
WIRE 448 160 448 128
WIRE 480 160 448 160
WIRE 512 160 480 160
WIRE 128 192 128 112
WIRE 304 192 304 112
WIRE 480 208 480 160
WIRE 512 208 480 208
WIRE 608 208 576 208
WIRE 768 208 688 208
WIRE 448 224 448 160
WIRE 768 288 768 208
WIRE -16 368 -16 208
WIRE 128 368 128 272
WIRE 128 368 -16 368
WIRE 176 368 128 368
WIRE 304 368 304 272
WIRE 304 368 176 368
WIRE 448 368 448 304
WIRE 448 368 304 368
WIRE 768 368 448 368
WIRE 176 432 176 368
FLAG 176 432 0
FLAG 128 112 Vgen
FLAG 512 160 Vout
SYMBOL voltage -16 112 R0
WINDOW 123 0 0 Left 2
WINDOW 39 24 124 Left 2
SYMATTR SpiceLine Rser=10
SYMATTR InstName V1
SYMATTR Value 9
SYMBOL voltage 128 176 R0
WINDOW 123 24 124 Left 2
WINDOW 39 0 0 Left 2
SYMATTR Value2 AC ac 1.
SYMATTR InstName V2
SYMATTR Value SINE(0 1 100 1)
SYMBOL cap 240 96 R90
WINDOW 0 0 32 VBottom 2
WINDOW 3 32 32 VTop 2
SYMATTR InstName C1
SYMATTR Value 10n
SYMBOL nmos 400 32 R0
SYMATTR InstName NMOS
SYMATTR Value Si7540DP_N
SYMBOL res 288 -32 R0
SYMATTR InstName R1
SYMATTR Value 10meg
SYMBOL res 288 176 R0
SYMATTR InstName R2
SYMATTR Value 10meg
SYMBOL res 432 208 R0
SYMATTR InstName R3
SYMATTR Value 100k
SYMBOL res 432 -80 R0
SYMATTR InstName R4
SYMATTR Value .00001
SYMBOL res 704 192 R90
WINDOW 0 0 56 VBottom 2
WINDOW 3 32 56 VTop 2
SYMATTR InstName R5
SYMATTR Value 20k
SYMBOL voltage 768 272 R0
WINDOW 123 0 0 Left 2
WINDOW 39 0 0 Left 2
SYMATTR InstName V3
SYMATTR Value 4.5
SYMBOL cap 576 192 R90
WINDOW 0 0 32 VBottom 2
WINDOW 3 32 32 VTop 2
SYMATTR InstName C2
SYMATTR Value 10µ
TEXT -48 456 Left 2 !.tran 5 startup
TEXT -48 512 Left 2 !;ac oct 12 5 50k
TEXT -32 552 Left 2 !.inc 5LN01SP.LIB
