Version 4
SHEET 1 1640 868
WIRE 400 -192 304 -192
WIRE 464 -192 400 -192
WIRE 304 -112 -176 -112
WIRE 976 -64 736 -64
WIRE 1104 -64 1056 -64
WIRE 304 -48 304 -112
WIRE -368 -32 -416 -32
WIRE 464 0 464 -192
WIRE -368 16 -368 -32
WIRE -176 16 -176 -112
WIRE -176 16 -320 16
WIRE -448 32 -448 16
WIRE -416 32 -416 -32
WIRE -416 32 -448 32
WIRE 736 48 736 -64
WIRE 768 48 736 48
WIRE 928 48 768 48
WIRE 976 48 928 48
WIRE 1104 64 1104 -64
WIRE 1104 64 1040 64
WIRE 1184 64 1104 64
WIRE 1296 64 1248 64
WIRE 1408 64 1296 64
WIRE 96 80 -16 80
WIRE 144 80 96 80
WIRE 304 80 304 32
WIRE 304 80 208 80
WIRE 416 80 304 80
WIRE 624 80 608 80
WIRE 720 80 704 80
WIRE 896 80 720 80
WIRE 976 80 896 80
WIRE -448 96 -448 32
WIRE -320 112 -320 16
WIRE -288 112 -320 112
WIRE -368 128 -368 96
WIRE -336 128 -368 128
WIRE -176 128 -176 16
WIRE -176 128 -224 128
WIRE -16 128 -16 80
WIRE 464 128 464 96
WIRE 544 128 464 128
WIRE 608 128 608 80
WIRE -368 144 -368 128
WIRE -336 144 -336 128
WIRE -288 144 -336 144
WIRE 464 160 464 128
WIRE 768 160 768 48
WIRE 928 160 928 48
WIRE -448 208 -448 176
WIRE -448 208 -576 208
WIRE -576 224 -576 208
WIRE 768 256 768 240
WIRE 768 256 704 256
WIRE 928 256 928 240
WIRE 1280 256 928 256
WIRE 768 272 768 256
WIRE 928 272 928 256
WIRE -448 288 -448 208
WIRE -368 288 -368 224
WIRE -368 288 -448 288
WIRE -16 336 -16 208
WIRE 1280 336 1280 320
WIRE 1280 336 1168 336
WIRE 1504 336 1280 336
WIRE 1632 336 1584 336
WIRE 704 368 704 256
WIRE 704 368 640 368
WIRE 1280 368 1280 336
WIRE 464 384 464 240
WIRE 720 384 720 80
WIRE 768 384 768 352
WIRE 768 384 720 384
WIRE 896 384 896 80
WIRE 928 384 928 352
WIRE 928 384 896 384
WIRE 704 416 704 368
WIRE 1424 432 1280 432
WIRE 1536 432 1536 416
WIRE 1280 448 1280 432
WIRE 1280 448 1216 448
WIRE 1424 448 1424 432
WIRE 1504 448 1424 448
WIRE 1168 464 1168 336
WIRE 1280 464 1280 448
WIRE 1632 464 1632 336
WIRE 1632 464 1568 464
WIRE 1504 480 1488 480
WIRE 640 496 640 368
WIRE 704 496 704 480
WIRE 704 496 640 496
WIRE 928 496 704 496
WIRE 1056 496 1008 496
WIRE 1536 512 1536 496
WIRE 704 528 704 496
WIRE 1488 560 1488 480
WIRE 1632 560 1632 464
WIRE 1632 560 1488 560
WIRE 1168 576 1168 544
WIRE 1280 576 1280 544
WIRE 1280 576 1168 576
WIRE 848 592 704 592
WIRE 960 592 960 576
WIRE 848 608 848 592
WIRE 928 608 848 608
WIRE 1280 608 1280 576
WIRE 704 624 704 592
WIRE 1056 624 1056 496
WIRE 1056 624 992 624
WIRE 928 640 912 640
WIRE 960 672 960 656
WIRE 912 720 912 640
WIRE 1056 720 1056 624
WIRE 1056 720 912 720
WIRE 704 768 704 704
FLAG -576 224 0
FLAG -16 336 0
FLAG -448 16 V+
FLAG 1008 32 V+
FLAG 960 672 V+
FLAG 1408 64 vout
FLAG 1008 96 0
FLAG 960 576 0
FLAG -256 96 V+
FLAG -256 160 0
FLAG -176 128 vref
FLAG 704 768 vref
FLAG 96 160 0
FLAG 1296 144 0
FLAG 464 384 0
FLAG 400 -192 V+
FLAG 1536 512 V+
FLAG 1536 416 0
FLAG 1280 608 vref
SYMBOL voltage -448 80 R0
WINDOW 123 0 0 Left 2
WINDOW 39 0 0 Left 2
SYMATTR InstName V1
SYMATTR Value 9
SYMBOL voltage -16 112 R0
WINDOW 3 24 152 Left 2
WINDOW 123 24 124 Left 2
WINDOW 39 0 0 Left 2
SYMATTR Value SINE(0 1 100 1)
SYMATTR Value2 AC AC 1.
SYMATTR InstName V3
SYMBOL Opamps\\UniversalOpamp2 1008 64 R0
SYMATTR InstName U1
SYMBOL Opamps\\UniversalOpamp2 960 624 M180
SYMATTR InstName U2
SYMBOL res 1072 -80 R90
WINDOW 0 0 56 VBottom 2
WINDOW 3 32 56 VTop 2
SYMATTR InstName R1
SYMATTR Value 10k
SYMBOL res 720 64 R90
WINDOW 0 0 56 VBottom 2
WINDOW 3 32 56 VTop 2
SYMATTR InstName R2
SYMATTR Value 10k
SYMBOL cap 720 592 R180
WINDOW 0 24 56 Left 2
WINDOW 3 24 8 Left 2
SYMATTR InstName C1
SYMATTR Value .1µ
SYMBOL res 1024 480 R90
WINDOW 0 0 56 VBottom 2
WINDOW 3 32 56 VTop 2
SYMATTR InstName R4
SYMATTR Value 470
SYMBOL res 688 608 R0
SYMATTR InstName R5
SYMATTR Value 47k
SYMBOL cap 688 416 R0
SYMATTR InstName C2
SYMATTR Value .47µ
SYMBOL res 752 144 R0
SYMATTR InstName R6
SYMATTR Value {rv + 1}
SYMBOL res 752 256 R0
SYMATTR InstName R7
SYMATTR Value {10K001 - rv}
SYMBOL Opamps\\UniversalOpamp2 -256 128 R0
SYMATTR InstName U3
SYMBOL res -384 0 R0
SYMATTR InstName R8
SYMATTR Value 10k
SYMBOL res -384 128 R0
SYMATTR InstName R9
SYMATTR Value 10k
SYMBOL cap 208 64 R90
WINDOW 0 0 32 VBottom 2
WINDOW 3 32 32 VTop 2
SYMATTR InstName C3
SYMATTR Value .1µ
SYMBOL res 80 64 R0
SYMATTR InstName R10
SYMATTR Value 1meg
SYMBOL cap 1248 48 R90
WINDOW 0 0 32 VBottom 2
WINDOW 3 32 32 VTop 2
SYMATTR InstName C4
SYMATTR Value 10µ
SYMBOL res 1280 48 R0
SYMATTR InstName R11
SYMATTR Value 1meg
SYMBOL res 912 144 R0
SYMATTR InstName R12
SYMATTR Value {10k001 - rv}
SYMBOL res 912 256 R0
SYMATTR InstName R13
SYMATTR Value {rv + 1}
SYMBOL res 288 -64 R0
SYMATTR InstName R3
SYMATTR Value 10meg
SYMBOL nmos 416 0 R0
SYMATTR InstName NMOS
SYMATTR Value Si7540DP_N
SYMBOL res 448 144 R0
SYMATTR InstName R17
SYMATTR Value 10k
SYMBOL cap 608 112 R90
WINDOW 0 0 32 VBottom 2
WINDOW 3 32 32 VTop 2
SYMATTR InstName C7
SYMATTR Value 10µ
SYMBOL Opamps\\UniversalOpamp2 1536 464 M180
SYMATTR InstName U4
SYMBOL cap 1296 432 R180
WINDOW 0 24 56 Left 2
WINDOW 3 24 8 Left 2
SYMATTR InstName C5
SYMATTR Value 2n
SYMBOL res 1600 320 R90
WINDOW 0 0 56 VBottom 2
WINDOW 3 32 56 VTop 2
SYMATTR InstName R14
SYMATTR Value 470
SYMBOL res 1264 448 R0
SYMATTR InstName R15
SYMATTR Value 47k
SYMBOL cap 1264 256 R0
SYMATTR InstName C6
SYMATTR Value .1µ
SYMBOL res 1152 448 R0
SYMATTR InstName R16
SYMATTR Value 1k
TEXT -648 -80 Left 2 !;tran 0 5 0 startup
TEXT -640 -112 Left 2 !.ac oct 12 2 50k
TEXT -648 -144 Left 2 !.step param rv 1 10K 1k
TEXT -304 504 Left 2 ;Gyrator filter parameters:\nAssume the R's are equal (R4, R5).\nCenter frequency is set by R, Cseries (C2), Cinductor (C1)\nQ is ration of Cind to Cser\nDepth of cut is R vs input/feedback resistors
TEXT -656 -184 Left 2 !;.step param rv list 5k 5k001
TEXT -304 672 Left 2 !.inc 5LN01SP.LIB
